kpg193_v2_0_2022/network/m/KPG193_ver2_0_2022.m
function mpc = KPG193_ver2_0_2022
% Generated from KPG193_ver1_6 ACOPF hourly result.
% Bus voltage angle Va is in degrees, matching MATPOWER case format.
mpc.version = '2';

%-----  Power Flow Data  -----%%
% system MVA base
mpc.baseMVA = 100;

% bus data
%	bus_i	type	Pd	Qd	Gs	Bs	area	Vm	Va	baseKV	zone	Vmax	Vmin
mpc.bus = [
	1	1	62.3083952113	6.23083952113	0	0	1	0.99997066159	-16.3364645824	154	1	1.1	0.9	;
	2	1	75.3077235663	7.53077235663	0	0	1	1.00385953768	-16.330871159	345	1	1.05	0.95	;
	3	2	345.390489789	34.5390489789	0	0	1	1.00435312831	-16.0595889241	345	1	1.05	0.95	;
	4	2	80.1087147661	8.01087147661	0	0	1	1.00433544488	-16.1930093947	345	1	1.05	0.95	;
	5	1	77.1553002725	9.04601708915	0	0	1	0.992726597886	-18.1003104367	154	1	1.1	0.9	;
	6	1	76.967229416	7.6967229416	0	0	1	1.00070837675	-19.6834902111	154	1	1.1	0.9	;
	7	1	519.336234206	51.933686957	0	0	1	1.00216273424	-18.5526875679	345	1	1.05	0.95	;
	8	2	1185.47307397	118.547307397	0	0	1	1.00223179034	-19.6422333277	345	1	1.05	0.95	;
	9	1	300.125361836	30.0125361836	0	0	1	1.00243298371	-19.688242782	154	1	1.1	0.9	;
	10	1	659.363577531	65.9363577531	0	0	1	1.00093781891	-19.7888077159	154	1	1.1	0.9	;
	11	1	546.138586539	54.6138586539	0	0	1	0.999580573843	-20.228692548	345	1	1.05	0.95	;
	12	1	299.67279372	29.967279372	0	0	1	1.00228949133	-19.703182282	154	1	1.1	0.9	;
	13	1	322.99473939	32.299473939	0	0	1	1.00241766535	-19.6956382091	154	1	1.1	0.9	;
	14	1	346.387977281	34.6387977281	0	0	1	1.00250968339	-19.6896848523	345	1	1.05	0.95	;
	15	1	102.468316052	10.2468316052	0	0	1	1.00293290714	-19.6411573996	154	1	1.1	0.9	;
	16	1	441.437542987	44.1437542987	0	0	1	1.00320842609	-19.6150576295	345	1	1.05	0.95	;
	17	1	476.005685631	47.6005685631	0	0	1	1.00291168317	-19.6674871142	345	1	1.05	0.95	;
	18	1	496.969689713	49.6969689713	0	0	1	1.00273896406	-19.6852379952	345	1	1.05	0.95	;
	19	1	467.854340335	46.7864087158	0	0	1	1.00238519399	-19.7018424123	345	1	1.05	0.95	;
	20	1	239.263463931	24.1613897767	0	0	1	1.00088002623	-19.8456601792	154	1	1.1	0.9	;
	21	1	728.815985866	72.9297758918	0	0	1	0.998607374232	-20.3210555689	345	1	1.05	0.95	;
	22	1	588.925320572	58.8925320572	0	0	1	1.00283562777	-19.62668159	345	1	1.05	0.95	;
	23	1	344.634041096	34.4634041096	0	0	1	1.00190261585	-19.7166477937	345	1	1.05	0.95	;
	24	1	563.828245544	56.3828245544	0	0	1	1.00036085178	-19.899997251	154	1	1.1	0.9	;
	25	1	455.952585544	45.5952585544	0	0	1	0.998018960271	-20.4327015633	154	1	1.1	0.9	;
	26	1	538.155333253	53.8155333253	0	0	1	0.999586485329	-19.9428938553	345	1	1.05	0.95	;
	27	1	21.7494346883	3.06542466537	0	0	1	0.999579382143	-19.9464490904	345	1	1.05	0.95	;
	28	1	122.005939177	12.2005939177	0	0	1	1.00597414591	-15.3916104435	765	1	1.05	0.95	;
	29	1	593.340066513	59.3340207052	0	0	1	1.00185908788	-19.6704967626	345	1	1.05	0.95	;
	30	1	461.014132039	46.1014132039	0	0	1	1.00181209207	-19.6730432566	154	1	1.1	0.9	;
	31	1	374.936729503	37.4937192004	0	0	1	1.00091730577	-19.7782353753	154	1	1.1	0.9	;
	32	1	154.587691413	15.4587691413	0	0	1	1.00187251081	-19.7086988786	345	1	1.05	0.95	;
	33	1	445.781539649	44.5781539649	0	0	1	1.00155732676	-19.7323768412	154	1	1.1	0.9	;
	34	1	996.943524193	99.6943846895	0	0	1	0.999462160639	-19.9332467828	345	1	1.05	0.95	;
	35	1	607.346680547	60.7346680547	0	0	1	0.99430720318	-19.6653791916	154	1	1.1	0.9	;
	36	1	700.643785542	70.0643785542	0	0	1	1.00197800014	-19.6380728537	345	1	1.05	0.95	;
	37	1	858.9755593	85.89755593	0	0	1	0.999569849529	-19.1583542897	345	1	1.05	0.95	;
	38	1	347.894905706	34.7894905706	0	0	1	0.999798874115	-19.0848678027	345	1	1.05	0.95	;
	39	1	671.187221375	67.1187221375	0	0	1	0.992788377883	-20.2354395406	154	1	1.1	0.9	;
	40	2	1016.74318242	101.740551915	0	0	1	1.0021019703	-16.7743099734	345	1	1.05	0.95	;
	41	1	183.832860395	18.3832860395	0	0	1	0.987936754987	-18.2105652694	154	1	1.1	0.9	;
	42	1	1121.93406637	112.193406637	0	0	1	0.984545407032	-21.0287160013	154	1	1.1	0.9	;
	43	1	584.761712679	58.4763343749	0	0	1	0.996599601068	-19.6695858556	154	1	1.1	0.9	;
	44	1	180.415230193	18.0415997942	0	0	1	1.00028663986	-18.3170874278	345	1	1.05	0.95	;
	45	1	330.332808135	33.0332808135	0	0	1	1.00285232326	-18.1068692136	345	1	1.05	0.95	;
	46	1	1039.17975966	103.917975966	0	0	1	1.00200773744	-18.5327782704	345	1	1.05	0.95	;
	47	2	2632.08210196	263.208244462	0	0	1	1.00026921932	-16.0954613397	345	1	1.05	0.95	;
	48	1	183.599467235	18.3599467235	0	0	1	1.00529666656	-16.8921753167	154	1	1.1	0.9	;
	49	2	375.631603723	37.5631603723	0	0	1	1.01047792101	-13.9153419519	154	1	1.1	0.9	;
	50	1	446.691840041	44.6691840041	0	0	1	1.00953354839	-15.4966288174	765	1	1.05	0.95	;
	51	1	1789.55989591	178.955989591	0	0	1	1.01498241556	-15.2232278837	345	1	1.05	0.95	;
	52	1	411.830279272	41.1830279272	0	0	2	0.992866400546	-17.3215626979	154	1	1.1	0.9	;
	53	2	854.711305302	85.4711305302	0	0	2	1.02281602234	-7.881433848	765	1	1.05	0.95	;
	54	1	367.234077577	36.7234077577	0	0	2	1.00738556757	-14.9861035426	345	1	1.05	0.95	;
	55	1	1068.95428887	106.895448967	0	0	2	1.00875717488	-12.4323370291	345	1	1.05	0.95	;
	56	1	148.515780562	14.8515780562	0	0	2	0.997436208922	-16.5467084544	154	1	1.1	0.9	;
	57	1	1683.12984627	168.312999923	0	0	2	1.00491551315	-13.3401839514	345	1	1.05	0.95	;
	58	1	1259.94424499	125.994467325	0	0	2	1.02211857934	-5.91650102039	345	1	1.05	0.95	;
	59	2	114.404574271	11.4406845667	0	0	2	1.02575451335	-3.94677314003	345	1	1.05	0.95	;
	60	1	166.611463185	16.6611463185	0	0	2	1.01255819505	-9.9809866675	345	1	1.05	0.95	;
	61	1	797.643362391	79.7643391342	0	0	2	1.00589537885	-14.7301487837	154	1	1.1	0.9	;
	62	1	938.828009793	93.8828145193	0	0	2	1.00990810397	-13.6866984818	765	1	1.05	0.95	;
	63	1	130.069404595	13.0069404595	0	0	2	1.0181583129	-8.88975202093	765	1	1.05	0.95	;
	64	1	473.932711726	47.3932711726	0	0	2	1.00561292359	-12.4100538352	345	1	1.05	0.95	;
	65	1	80.1220914182	11.2708910427	0	0	3	0.992522162982	-5.14665864758	154	1	1.1	0.9	;
	66	1	27.7349519753	3.25586141206	0	0	3	0.989929484273	-15.75533462	154	1	1.1	0.9	;
	67	1	23.4560676167	2.57961143698	0	0	3	0.986632663504	-12.1735322554	154	1	1.1	0.9	;
	68	1	39.2591128319	4.07278441977	0	0	3	0.998154224335	-2.94085570122	345	1	1.05	0.95	;
	69	1	41.268776935	4.23793020074	0	0	3	0.986786619022	-9.58436402983	154	1	1.1	0.9	;
	70	1	233.711560693	23.3741975701	0	0	3	0.985760286732	-17.0640632767	154	1	1.1	0.9	;
	71	2	263.608118037	26.3608118037	0	0	3	1.0041898833	-0.315937408876	345	1	1.05	0.95	;
	72	1	92.033562713	9.2033562713	0	0	3	0.982397061818	-14.7563848489	154	1	1.1	0.9	;
	73	2	291.614201543	29.8876306027	0	0	3	1.00823409767	0.730025942953	345	1	1.05	0.95	;
	74	1	79.2769263568	8.4996021195	0	0	3	0.981264486766	-14.1037805785	154	1	1.1	0.9	;
	75	2	173.081530905	17.6393185144	0	0	3	1.01143079584	1.99199688926	345	1	1.05	0.95	;
	76	1	76.7706979237	7.85240556885	0	0	3	0.997040335219	-4.22415078956	154	1	1.1	0.9	;
	77	1	323.828046866	32.3828046866	0	0	3	0.980671004169	-15.0189409409	154	1	1.1	0.9	;
	78	1	47.6644482834	7.83748986804	0	0	3	0.987934089265	-9.03882040135	154	1	1.1	0.9	;
	79	1	142.864513935	14.2864513935	0	0	3	0.994729340532	-6.54242096886	154	1	1.1	0.9	;
	80	1	-112.475286183	3.79086828499	0	0	3	1.01024296505	-3.05847371366	765	1	1.05	0.95	;
	81	1	206.917024137	20.6917523019	0	0	3	0.993498336458	-8.71580610596	345	1	1.05	0.95	;
	82	2	76.1654488164	8.996903925	0	0	3	1.01489718599	0.445682351552	765	1	1.05	0.95	;
	83	1	236.597537403	23.6597889765	0	0	3	0.989197727466	-9.32693609693	154	1	1.1	0.9	;
	84	1	334.757196247	34.5126715278	0	0	3	0.990404476581	-16.2238080719	345	1	1.05	0.95	;
	85	1	222.83419881	22.283419881	0	0	3	0.999520621071	-6.99162528721	154	1	1.1	0.9	;
	86	1	218.214639742	21.8214757979	0	0	3	1.00155400979	-7.4558749142	345	1	1.05	0.95	;
	87	1	27.2592050787	4.99211873659	0	0	3	1.00228021854	-8.28694427545	345	1	1.05	0.95	;
	88	1	-58.7135651983	1.4037056047	0	0	3	1.00462466005	-7.76047501099	154	1	1.1	0.9	;
	89	1	75.7194335932	7.57197832147	0	0	3	0.994503433183	-10.517642018	154	1	1.1	0.9	;
	90	1	146.830646324	15.1644657316	0	0	3	1.0008883197	-8.71956738599	154	1	1.1	0.9	;
	91	1	50.7634147528	5.07634147528	0	0	3	1.00165813838	-12.2442413635	154	1	1.1	0.9	;
	92	1	2.95058272171	2.57638551428	0	0	3	1.00354764728	-8.6039216472	345	1	1.05	0.95	;
	93	1	100.447354405	10.0447989742	0	0	3	0.995054212956	-11.653783262	154	1	1.1	0.9	;
	94	1	13.6590590749	3.71297667111	0	0	3	1.00320226138	-7.40436742484	154	1	1.1	0.9	;
	95	1	57.0562443021	5.70562443021	0	0	3	1.00249623772	-9.48693224075	345	1	1.05	0.95	;
	96	1	147.614064746	14.7614064746	0	0	4	1.00655258868	-10.5118861486	154	1	1.1	0.9	;
	97	1	45.9309691299	4.59309691299	0	0	4	1.01244500969	-7.89780295059	345	1	1.05	0.95	;
	98	1	234.464889572	23.6801907579	0	0	4	1.00294792346	-12.24010026	154	1	1.1	0.9	;
	99	1	759.76381557	75.976381557	0	0	4	0.994874805545	-13.934747731	154	1	1.1	0.9	;
	100	2	178.048935242	17.8048935242	0	0	4	1.01818734303	-5.74910124993	345	1	1.05	0.95	;
	101	1	277.679847723	27.7679847723	0	0	4	0.995316035263	-13.7372025013	154	1	1.1	0.9	;
	102	1	81.7479663817	8.17479663817	0	0	4	1.00566996187	-10.8621632196	345	1	1.05	0.95	;
	103	1	85.6994198917	8.56994198917	0	0	4	1.00988601797	-8.10285590548	154	1	1.1	0.9	;
	104	1	181.042269589	18.1042269589	0	0	4	1.00707540724	-9.4932465342	345	1	1.05	0.95	;
	105	1	121.365046924	12.1365046924	0	0	4	1.00391208624	-11.2488128766	154	1	1.1	0.9	;
	106	2	143.633302957	14.3633302957	0	0	4	1.00555116814	-5.9945829707	154	1	1.1	0.9	;
	107	1	4.78113254798	2.72723261083	0	0	4	1.00530154752	-10.6459246484	345	1	1.05	0.95	;
	108	1	745.498530521	74.5498530521	0	0	4	1.00313228871	-6.81296374428	345	1	1.05	0.95	;
	109	1	390.393721107	39.0393721107	0	0	4	1.00267337186	-6.68371984319	345	1	1.05	0.95	;
	110	1	228.462394388	22.8462394388	0	0	4	0.993436019043	-8.02579102894	154	1	1.1	0.9	;
	111	1	144.676530143	14.4676530143	0	0	4	1.00162792057	-4.79637910394	345	1	1.05	0.95	;
	112	1	26.7469902967	2.67469902968	0	0	4	0.992580371095	-8.59583891036	154	1	1.1	0.9	;
	113	1	568.54728087	56.854728087	0	0	4	0.992408641091	-7.73968437634	154	1	1.1	0.9	;
	114	1	62.872142691	6.28895978339	0	0	4	0.997929345873	-5.88774928674	154	1	1.1	0.9	;
	115	1	27.4236963274	2.74236963274	0	0	4	0.992092678134	-8.80218046636	154	1	1.1	0.9	;
	116	1	38.7132185827	3.87132185827	0	0	4	0.997779920291	-5.30975295708	154	1	1.1	0.9	;
	117	1	223.70923343	23.375585857	0	0	4	0.994853814986	-6.75804366889	154	1	1.1	0.9	;
	118	1	84.8960913649	8.48960913649	0	0	4	0.99246499056	-7.48359211566	154	1	1.1	0.9	;
	119	1	85.5262528975	8.55262528975	0	0	4	1.00612803408	-2.40194657536	345	1	1.05	0.95	;
	120	1	35.0677917941	3.50677917941	0	0	4	1.00126372571	-2.39404547849	154	1	1.1	0.9	;
	121	1	81.6090706246	8.16090706246	0	0	4	1.00278032947	-0.73896053322	154	1	1.1	0.9	;
	122	1	67.5803979526	6.75803979526	0	0	4	0.999773491374	-3.26860301046	154	1	1.1	0.9	;
	123	1	54.965162307	5.4965162307	0	0	4	1.00190773768	-2.16171490472	154	1	1.1	0.9	;
	124	2	106.818013409	10.6818013409	0	0	4	1.02128039685	5.01804374513	345	1	1.05	0.95	;
	125	1	22.7497300258	2.27497300257	0	0	4	1.00156000937	-2.32755650091	154	1	1.1	0.9	;
	126	1	378.997361121	37.8997361121	0	0	4	1.00475079562	-1.14764651627	345	1	1.05	0.95	;
	127	1	298.647741691	29.8647741691	0	0	4	1.00249629946	-1.88382861893	154	1	1.1	0.9	;
	128	1	451.227312987	45.1227312987	0	0	4	0.994304633773	-3.68048895649	154	1	1.1	0.9	;
	129	1	53.4077994984	5.34077994984	0	0	4	0.995874536841	-5.27229075352	154	1	1.1	0.9	;
	130	1	66.241259012	6.75624239966	0	0	4	1.00339873337	-1.87208486525	345	1	1.05	0.95	;
	131	1	173.13956377	17.313956377	0	0	4	0.998396137244	-3.34753923204	154	1	1.1	0.9	;
	132	1	92.9420522959	9.29420522959	0	0	4	0.996517254797	-5.08222670209	154	1	1.1	0.9	;
	133	1	272.688036515	27.8180502878	0	0	4	1.001121604	-1.46367023758	345	1	1.05	0.95	;
	134	2	633.780870356	63.3780870356	0	0	4	1.00212565686	-0.68682898316	345	1	1.05	0.95	;
	135	1	134.478000836	13.4504277041	0	0	4	0.996384910015	-5.13044846798	154	1	1.1	0.9	;
	136	1	154.673470106	15.4673470106	0	0	4	1.00135494021	-3.03815251388	345	1	1.05	0.95	;
	137	2	1839.91763353	184.07465705	0	0	4	0.998755079827	-1.6550590905	345	1	1.05	0.95	;
	138	1	39.7773036058	3.97773036058	0	0	4	0.99829533103	-3.60474084804	154	1	1.1	0.9	;
	139	1	42.2013732562	4.22013732562	0	0	4	0.996296263023	-5.39292887774	154	1	1.1	0.9	;
	140	1	47.7748426333	4.88015037998	0	0	4	0.997650698442	-4.17192337914	154	1	1.1	0.9	;
	141	1	50.7263267017	5.07263267017	0	0	4	0.997827598516	-4.33612296644	154	1	1.1	0.9	;
	142	1	68.9262985099	6.89262985099	0	0	4	0.999144728795	-2.15415799079	154	1	1.1	0.9	;
	143	1	99.098700001	9.91020891851	0	0	4	0.996068262709	-4.95985306228	154	1	1.1	0.9	;
	144	1	45.5761021235	4.55879214246	0	0	4	0.996024461239	-5.37616148531	154	1	1.1	0.9	;
	145	1	138.418856426	14.1609757431	0	0	4	0.989851380408	-6.71541712274	154	1	1.1	0.9	;
	146	1	39.7740286444	4.14175612264	0	0	5	0.997475645647	-10.9962260696	154	1	1.1	0.9	;
	147	1	56.1435965651	5.61435965651	0	0	5	1.00338145338	-11.5208456418	154	1	1.1	0.9	;
	148	1	303.967898538	30.3967898538	0	0	5	0.986536242074	-14.3210370563	154	1	1.1	0.9	;
	149	1	1202.52874862	120.252874862	0	0	5	0.99163614563	-12.9189247469	345	1	1.05	0.95	;
	150	1	664.857761259	66.8724185798	0	0	5	1.00032958603	-10.9815335117	345	1	1.05	0.95	;
	151	1	560.858907881	56.5177365317	0	0	5	1.00129676114	-10.864494068	345	1	1.05	0.95	;
	152	1	253.295694905	25.3295694905	0	0	5	0.996273711308	-11.5891732912	345	1	1.05	0.95	;
	153	1	198.484786698	19.8484786698	0	0	5	0.996392725287	-12.0494025443	154	1	1.1	0.9	;
	154	1	135.856296947	13.5856347763	0	0	5	0.992039053348	-12.7535482672	154	1	1.1	0.9	;
	155	1	380.685360372	38.0686309384	0	0	5	0.99314545776	-12.6452449115	154	1	1.1	0.9	;
	156	1	410.123222919	41.0123222919	0	0	5	0.996835066793	-11.785634658	154	1	1.1	0.9	;
	157	1	193.071742056	19.3071742056	0	0	5	0.989360845681	-13.106541785	154	1	1.1	0.9	;
	158	1	463.10453976	50.5101898806	0	0	5	0.999433858066	-11.1652416922	154	1	1.1	0.9	;
	159	1	351.302714113	35.1302714113	0	0	5	1.00008835245	-10.9132376971	345	1	1.05	0.95	;
	160	1	1002.60799039	100.260799039	0	0	5	0.988763564246	-13.0677212308	154	1	1.1	0.9	;
	161	1	165.323709716	16.5323709716	0	0	5	1.00164477869	-9.24700772705	345	1	1.05	0.95	;
	162	1	59.6539504157	5.96539504157	0	0	5	0.998782605923	-8.84912849359	154	1	1.1	0.9	;
	163	1	62.7441965777	6.27441965777	0	0	5	1.00431481275	-9.50760263936	345	1	1.05	0.95	;
	164	1	50.4298059642	5.27670413798	0	0	5	0.999948221685	-9.29935411854	154	1	1.1	0.9	;
	165	1	1538.58719347	153.858746896	0	0	5	1.00348952662	-9.89943004809	345	1	1.05	0.95	;
	166	2	493.837615668	49.4196133925	0	0	5	1.01245736887	-7.55811229248	345	1	1.05	0.95	;
	167	1	2053.44531996	205.344567133	0	0	5	1.01095592165	-7.85266321138	345	1	1.05	0.95	;
	168	1	130.769114607	13.0769114607	0	0	5	1.01001895994	-7.93392173587	765	1	1.05	0.95	;
	169	1	36.8529812019	3.68529812019	0	0	5	0.999025747941	-7.7923498986	154	1	1.1	0.9	;
	170	1	145.529034308	16.1939039424	0	0	5	1.00358746758	-8.46012616133	154	1	1.1	0.9	;
	171	1	26.6122102211	4.53327314893	0	0	5	1.00156125131	-4.82449298779	345	1	1.05	0.95	;
	172	1	474.340466427	47.8096499358	0	0	5	1.00524214506	-7.84122984927	154	1	1.1	0.9	;
	173	1	48.9050750651	4.96117402276	0	0	5	1.00083951998	-4.74310669682	345	1	1.05	0.95	;
	174	1	359.753491457	35.9753491457	0	0	5	0.998888891744	-5.20972002375	345	1	1.05	0.95	;
	175	2	163.019593666	16.3111974188	0	0	5	1.01945464411	-4.76435035737	765	1	1.05	0.95	;
	176	1	472.663737018	47.2663737018	0	0	5	0.998267427019	-5.40188995612	345	1	1.05	0.95	;
	177	1	604.349021371	60.4349389247	0	0	5	0.998785377163	-6.44322876688	345	1	1.05	0.95	;
	178	1	683.130683211	68.3130848082	0	0	5	0.994248022316	-8.27602680313	154	1	1.1	0.9	;
	179	1	364.624232337	36.4624232337	0	0	5	1.0135712434	-6.02905096392	345	1	1.05	0.95	;
	180	1	341.03147012	34.103147012	0	0	5	0.996577225604	-3.91190203868	154	1	1.1	0.9	;
	181	1	309.16699945	30.916699945	0	0	5	1.01101419466	-6.40876720077	345	1	1.05	0.95	;
	182	1	558.148651311	55.8149347313	0	0	5	0.994906728765	-7.82318193844	345	1	1.05	0.95	;
	183	1	252.490187652	25.2490421435	0	0	5	0.997942908176	-5.96371837999	345	1	1.05	0.95	;
	184	1	498.874427458	49.8874996118	0	0	5	1.0134174443	-6.1037236975	345	1	1.05	0.95	;
	185	1	285.099402873	28.5099402873	0	0	5	1.01097408669	-6.57834616004	154	1	1.1	0.9	;
	186	1	426.922982033	42.6924512441	0	0	5	1.01000491887	-6.7211753651	345	1	1.05	0.95	;
	187	1	59.004071185	5.9004071185	0	0	5	1.00998016014	-6.72909692861	345	1	1.05	0.95	;
	188	1	53.8862611741	5.38884686879	0	0	5	1.00157485025	-0.687669872788	154	1	1.1	0.9	;
	189	1	98.2860078321	9.83681079364	0	0	5	0.993160665722	-3.2917232176	154	1	1.1	0.9	;
	190	3	176.378426441	17.6509948792	0	0	5	1	0	345	1	1.05	0.95	;
	191	1	245.664047839	24.5664744571	0	0	5	0.988375653733	-4.44214324432	154	1	1.1	0.9	;
	192	1	122.71073779	12.2711081616	0	0	5	0.991701113106	-3.33012550778	154	1	1.1	0.9	;
	193	2	35.002133201	3.5002133201	0	0	5	1.00722902986	2.28264899724	345	1	1.05	0.95	;
];

% generator data
%	bus	Pg	Qg	Qmax	Qmin	Vg	mBase	status	Pmax	Pmin	Pc1	Pc2	Qc1min	Qc1max	Qc2min	Qc2max	ramp_agc	ramp_10	ramp_30	ramp_q	apf
mpc.gen = [
	3	0	0	362.5	-362.5	1.00435312831	100	0	725	377	0	0	0	0	0	0	0	120.8333333	362.5	362.5	0	;
	3	0	0	362.5	-362.5	1.00435312831	100	0	725	377	0	0	0	0	0	0	0	120.8333333	362.5	362.5	0	;
	3	847.765735133	-28.596206418	437.1	-437.1	1.00435312831	100	1	874.2	454.584	0	0	0	0	0	0	0	145.7	437.1	437.1	0	;
	4	0	0	262.15	-262.15	1.00433544488	100	0	524.3	272.636	0	0	0	0	0	0	0	87.38333333	262.15	262.15	0	;
	4	836.452574112	-29.1714102658	429.2	-429.2	1.00433544488	100	1	858.4	446.368	0	0	0	0	0	0	0	143.0666667	429.2	429.2	0	;
	4	836.452574112	-29.1714102658	429.2	-429.2	1.00433544488	100	1	858.4	446.368	0	0	0	0	0	0	0	143.0666667	429.2	429.2	0	;
	8	807.688908967	-17.2195647579	423.8	-423.8	1.00223179034	100	1	847.6	440.752	0	0	0	0	0	0	0	141.2666667	423.8	423.8	0	;
	8	807.688908967	-17.2195647579	423.8	-423.8	1.00223179034	100	1	847.6	440.752	0	0	0	0	0	0	0	141.2666667	423.8	423.8	0	;
	8	0	0	257.75	-257.75	1.00223179034	100	0	515.5	268.06	0	0	0	0	0	0	0	85.91666667	257.75	257.75	0	;
	9	0	0	57.705	-57.705	1.00243298371	100	0	115.41	60.0132	0	0	0	0	0	0	0	19.235	57.705	57.705	0	;
	9	0	0	18.5	-18.5	1.00243298371	100	0	37	19.24	0	0	0	0	0	0	0	6.166666667	18.5	18.5	0	;
	10	0	0	300	-300	1.00093781891	100	0	600	312	0	0	0	0	0	0	0	100	300	300	0	;
	10	0	0	150	-150	1.00093781891	100	0	300	156	0	0	0	0	0	0	0	50	150	150	0	;
	19	0	0	184.5865	-184.5865	1.00238519399	100	0	369.173	191.96996	0	0	0	0	0	0	0	61.52883333	184.5865	184.5865	0	;
	19	0	0	184.5865	-184.5865	1.00238519399	100	0	369.173	191.96996	0	0	0	0	0	0	0	61.52883333	184.5865	184.5865	0	;
	20	0	0	181.9055	-181.9055	1.00088002623	100	0	363.811	189.18172	0	0	0	0	0	0	0	60.63516667	181.9055	181.9055	0	;
	21	0	0	225	-225	0.998607374232	100	0	450	234	0	0	0	0	0	0	0	75	225	225	0	;
	21	0	0	225	-225	0.998607374232	100	0	450	234	0	0	0	0	0	0	0	75	225	225	0	;
	21	0	0	225	-225	0.998607374232	100	0	450	234	0	0	0	0	0	0	0	75	225	225	0	;
	21	0	0	225	-225	0.998607374232	100	0	450	234	0	0	0	0	0	0	0	75	225	225	0	;
	24	0	0	10.5	-10.5	1.00036085178	100	0	21	10.92	0	0	0	0	0	0	0	3.5	10.5	10.5	0	;
	26	0	0	225	-225	0.999586485329	100	0	450	234	0	0	0	0	0	0	0	75	225	225	0	;
	27	0	0	63.5	-63.5	0.999579382143	100	0	127	66.04	0	0	0	0	0	0	0	21.16666667	63.5	63.5	0	;
	27	0	0	93.65	-93.65	0.999579382143	100	0	187.3	97.396	0	0	0	0	0	0	0	31.21666667	93.65	93.65	0	;
	34	0	0	112.5	-112.5	0.999462160639	100	0	225	117	0	0	0	0	0	0	0	37.5	112.5	112.5	0	;
	34	0	0	112.5	-112.5	0.999462160639	100	0	225	117	0	0	0	0	0	0	0	37.5	112.5	112.5	0	;
	34	0	0	112.5	-112.5	0.999462160639	100	0	225	117	0	0	0	0	0	0	0	37.5	112.5	112.5	0	;
	34	0	0	112.5	-112.5	0.999462160639	100	0	225	117	0	0	0	0	0	0	0	37.5	112.5	112.5	0	;
	34	0	0	112.5	-112.5	0.999462160639	100	0	225	117	0	0	0	0	0	0	0	37.5	112.5	112.5	0	;
	34	0	0	112.5	-112.5	0.999462160639	100	0	225	117	0	0	0	0	0	0	0	37.5	112.5	112.5	0	;
	34	0	0	112.5	-112.5	0.999462160639	100	0	225	117	0	0	0	0	0	0	0	37.5	112.5	112.5	0	;
	34	0	0	112.5	-112.5	0.999462160639	100	0	225	117	0	0	0	0	0	0	0	37.5	112.5	112.5	0	;
	34	0	0	251.7695	-251.7695	0.999462160639	100	0	503.539	261.84028	0	0	0	0	0	0	0	83.92316667	251.7695	251.7695	0	;
	34	0	0	254.454	-254.454	0.999462160639	100	0	508.908	264.63216	0	0	0	0	0	0	0	84.818	254.454	254.454	0	;
	34	0	0	225	-225	0.999462160639	100	0	450	234	0	0	0	0	0	0	0	75	225	225	0	;
	34	0	0	225	-225	0.999462160639	100	0	450	234	0	0	0	0	0	0	0	75	225	225	0	;
	34	0	0	225	-225	0.999462160639	100	0	450	234	0	0	0	0	0	0	0	75	225	225	0	;
	34	0	0	287.3	-287.3	0.999462160639	100	0	574.6	298.792	0	0	0	0	0	0	0	95.76666667	287.3	287.3	0	;
	34	0	0	287.3	-287.3	0.999462160639	100	0	574.6	298.792	0	0	0	0	0	0	0	95.76666667	287.3	287.3	0	;
	34	0	0	187.8	-187.8	0.999462160639	100	0	375.6	195.312	0	0	0	0	0	0	0	62.6	187.8	187.8	0	;
	34	0	0	187.8	-187.8	0.999462160639	100	0	375.6	195.312	0	0	0	0	0	0	0	62.6	187.8	187.8	0	;
	34	0	0	187.8	-187.8	0.999462160639	100	0	375.6	195.312	0	0	0	0	0	0	0	62.6	187.8	187.8	0	;
	36	0	0	286.895	-286.895	1.00197800014	100	0	573.79	298.3708	0	0	0	0	0	0	0	95.63166667	286.895	286.895	0	;
	36	0	0	174.137	-174.137	1.00197800014	100	0	348.274	181.10248	0	0	0	0	0	0	0	58.04566667	174.137	174.137	0	;
	36	0	0	206.3	-206.3	1.00197800014	100	0	412.6	214.552	0	0	0	0	0	0	0	68.76666667	206.3	206.3	0	;
	36	0	0	73.157	-73.157	1.00197800014	100	0	146.314	76.08328	0	0	0	0	0	0	0	24.38566667	73.157	73.157	0	;
	37	0	0	12	-12	0.999569849529	100	0	24	12.48	0	0	0	0	0	0	0	4	12	12	0	;
	39	0	0	240.845	-240.845	0.992788377883	100	0	481.69	250.4788	0	0	0	0	0	0	0	80.28166667	240.845	240.845	0	;
	39	0	0	240.845	-240.845	0.992788377883	100	0	481.69	250.4788	0	0	0	0	0	0	0	80.28166667	240.845	240.845	0	;
	40	0	0	30	-30	1.0021019703	100	0	60	31.2	0	0	0	0	0	0	0	10	30	30	0	;
	40	725.231291602	17.1766713908	375.6	-375.6	1.0021019703	100	1	751.2	390.624	0	0	0	0	0	0	0	125.2	375.6	375.6	0	;
	40	755.138839341	23.064132828	400	-400	1.0021019703	100	1	800	320	0	0	0	0	0	0	0	88	264	400	0	;
	40	755.138839341	23.064132828	400	-400	1.0021019703	100	1	800	320	0	0	0	0	0	0	0	88	264	400	0	;
	40	824.646574992	33.8354305646	435	-435	1.0021019703	100	1	870	348	0	0	0	0	0	0	0	95.7	287.1	435	0	;
	40	824.646574992	33.8354305646	435	-435	1.0021019703	100	1	870	348	0	0	0	0	0	0	0	95.7	287.1	435	0	;
	40	824.646574992	33.8354305646	435	-435	1.0021019703	100	1	870	348	0	0	0	0	0	0	0	95.7	287.1	435	0	;
	40	824.646574992	33.8354305646	435	-435	1.0021019703	100	1	870	348	0	0	0	0	0	0	0	95.7	287.1	435	0	;
	43	0	0	72.394	-72.394	0.996599601068	100	0	144.788	75.28976	0	0	0	0	0	0	0	24.13133333	72.394	72.394	0	;
	43	0	0	19.45	-19.45	0.996599601068	100	0	38.9	20.228	0	0	0	0	0	0	0	6.483333333	19.45	19.45	0	;
	45	0	0	255.9	-255.9	1.00285232326	100	0	511.8	266.136	0	0	0	0	0	0	0	85.3	255.9	255.9	0	;
	47	0	0	175	-175	1.00026921932	100	0	350	182	0	0	0	0	0	0	0	58.33333333	175	175	0	;
	47	0	0	175	-175	1.00026921932	100	0	350	182	0	0	0	0	0	0	0	58.33333333	175	175	0	;
	47	0	0	175	-175	1.00026921932	100	0	350	182	0	0	0	0	0	0	0	58.33333333	175	175	0	;
	47	0	0	175	-175	1.00026921932	100	0	350	182	0	0	0	0	0	0	0	58.33333333	175	175	0	;
	47	843.265319765	41.606628595	434.25	-434.25	1.00026921932	100	1	868.5	451.62	0	0	0	0	0	0	0	144.75	434.25	434.25	0	;
	47	840.739834742	40.6430151487	431.65	-431.65	1.00026921932	100	1	863.3	448.916	0	0	0	0	0	0	0	143.8833333	431.65	431.65	0	;
	48	0	0	218.05	-218.05	1.00529666656	100	0	436.1	226.772	0	0	0	0	0	0	0	72.68333333	218.05	218.05	0	;
	48	0	0	189.19	-189.19	1.00529666656	100	0	378.38	196.7576	0	0	0	0	0	0	0	63.06333333	189.19	189.19	0	;
	48	0	0	189.19	-189.19	1.00529666656	100	0	378.38	196.7576	0	0	0	0	0	0	0	63.06333333	189.19	189.19	0	;
	49	738.039007855	13.3480955708	384.915	-384.915	1.01047792101	100	1	769.83	400.3116	0	0	0	0	0	0	0	128.305	384.915	384.915	0	;
	53	0	0	250.375	-250.375	1.02281602234	100	0	500.75	260.39	0	0	0	0	0	0	0	83.45833333	250.375	250.375	0	;
	53	0	0	266.5	-266.5	1.02281602234	100	0	533	277.16	0	0	0	0	0	0	0	88.83333333	266.5	266.5	0	;
	53	0	0	191	-191	1.02281602234	100	0	382	198.64	0	0	0	0	0	0	0	63.66666667	191	191	0	;
	53	816.75083129	12.8550179857	423	-423	1.02281602234	100	1	846	439.92	0	0	0	0	0	0	0	141	423	423	0	;
	53	455.0897217	11.2337036998	250	-250	1.02281602234	100	1	500	200	0	0	0	0	0	0	0	55	165	250	0	;
	53	455.0897217	11.2337036998	250	-250	1.02281602234	100	1	500	200	0	0	0	0	0	0	0	55	165	250	0	;
	53	455.0897217	11.2337036998	250	-250	1.02281602234	100	1	500	200	0	0	0	0	0	0	0	55	165	250	0	;
	53	455.0897217	11.2337036998	250	-250	1.02281602234	100	1	500	200	0	0	0	0	0	0	0	55	165	250	0	;
	53	455.0897217	11.2337036998	250	-250	1.02281602234	100	1	500	200	0	0	0	0	0	0	0	55	165	250	0	;
	53	455.0897217	11.2337036998	250	-250	1.02281602234	100	1	500	200	0	0	0	0	0	0	0	55	165	250	0	;
	53	455.0897217	11.2337036998	250	-250	1.02281602234	100	1	500	200	0	0	0	0	0	0	0	55	165	250	0	;
	53	455.0897217	11.2337036998	250	-250	1.02281602234	100	1	500	200	0	0	0	0	0	0	0	55	165	250	0	;
	53	972.133912511	33.4068624176	510	-510	1.02281602234	100	1	1020	408	0	0	0	0	0	0	0	112.2	336.6	510	0	;
	53	972.133912511	33.4068624176	510	-510	1.02281602234	100	1	1020	408	0	0	0	0	0	0	0	112.2	336.6	510	0	;
	57	0	0	50.85	-50.85	1.00491551315	100	0	101.7	52.884	0	0	0	0	0	0	0	16.95	50.85	50.85	0	;
	58	0	0	232.9	-232.9	1.02211857934	100	0	465.8	242.216	0	0	0	0	0	0	0	77.63333333	232.9	232.9	0	;
	59	0	0	173.165	-173.165	1.02575451335	100	0	346.33	180.0916	0	0	0	0	0	0	0	57.72166667	173.165	173.165	0	;
	59	450.758429232	13.605902494	250	-250	1.02575451335	100	1	500	200	0	0	0	0	0	0	0	55	165	250	0	;
	59	450.758429232	13.605902494	250	-250	1.02575451335	100	1	500	200	0	0	0	0	0	0	0	55	165	250	0	;
	59	450.758429232	13.605902494	250	-250	1.02575451335	100	1	500	200	0	0	0	0	0	0	0	55	165	250	0	;
	59	450.758429232	13.605902494	250	-250	1.02575451335	100	1	500	200	0	0	0	0	0	0	0	55	165	250	0	;
	59	450.758429232	13.605902494	250	-250	1.02575451335	100	1	500	200	0	0	0	0	0	0	0	55	165	250	0	;
	59	450.758429232	13.605902494	250	-250	1.02575451335	100	1	500	200	0	0	0	0	0	0	0	55	165	250	0	;
	59	450.758429232	13.605902494	250	-250	1.02575451335	100	1	500	200	0	0	0	0	0	0	0	55	165	250	0	;
	59	450.758429232	13.605902494	250	-250	1.02575451335	100	1	500	200	0	0	0	0	0	0	0	55	165	250	0	;
	59	991.089543318	11.7327187853	525	-525	1.02575451335	100	1	1050	420	0	0	0	0	0	0	0	115.5	346.5	525	0	;
	59	991.089543318	11.7327187853	525	-525	1.02575451335	100	1	1050	420	0	0	0	0	0	0	0	115.5	346.5	525	0	;
	62	0	0	29.15	-29.15	1.00990810397	100	0	58.3	30.316	0	0	0	0	0	0	0	9.716666667	29.15	29.15	0	;
	64	0	0	265.2205	-265.2205	1.00561292359	100	0	530.441	275.82932	0	0	0	0	0	0	0	88.40683333	265.2205	265.2205	0	;
	70	0	0	215.6	-215.6	0.985760286732	100	0	431.2	224.224	0	0	0	0	0	0	0	71.86666667	215.6	215.6	0	;
	71	982.903303398	0.485492515645	520	-520	1.0041898833	100	1	1040	416	0	0	0	0	0	0	0	114.4	343.2	520	0	;
	73	164.847900581	10.7708137347	100	-100	1.00823409767	100	1	200	80	0	0	0	0	0	0	0	22	66	100	0	;
	73	164.847900581	10.7708137347	100	-100	1.00823409767	100	1	200	80	0	0	0	0	0	0	0	22	66	100	0	;
	73	543.065081739	11.6870754744	297.5	-297.5	1.00823409767	100	1	595	238	0	0	0	0	0	0	0	65.45	196.35	297.5	0	;
	73	543.065081739	11.6870754744	297.5	-297.5	1.00823409767	100	1	595	238	0	0	0	0	0	0	0	65.45	196.35	297.5	0	;
	79	0	0	424	-424	0.994729340532	100	0	848	440.96	0	0	0	0	0	0	0	141.3333333	424	424	0	;
	75	951.661184802	-7.61981056081	511	-511	1.01143079584	100	1	1022	408.8	0	0	0	0	0	0	0	112.42	337.26	511	0	;
	75	951.661184802	-7.61981056081	511	-511	1.01143079584	100	1	1022	408.8	0	0	0	0	0	0	0	112.42	337.26	511	0	;
	82	932.087530099	45.1798970149	475	-475	1.01489718599	100	1	950	902.5	0	0	0	0	0	0	0	28.5	85.5	475	0	;
	82	932.087530099	45.1798970149	475	-475	1.01489718599	100	1	950	902.5	0	0	0	0	0	0	0	28.5	85.5	475	0	;
	82	981.340451965	53.8011612988	500	-500	1.01489718599	100	1	1000	950	0	0	0	0	0	0	0	30	90	500	0	;
	82	981.340451965	53.8011612988	500	-500	1.01489718599	100	1	1000	950	0	0	0	0	0	0	0	30	90	500	0	;
	82	981.340451965	53.8011612988	500	-500	1.01489718599	100	1	1000	950	0	0	0	0	0	0	0	30	90	500	0	;
	82	981.340451965	53.8011612988	500	-500	1.01489718599	100	1	1000	950	0	0	0	0	0	0	0	30	90	500	0	;
	82	1375.61214936	120.248697868	700	-700	1.01489718599	100	1	1400	1330	0	0	0	0	0	0	0	42	126	700	0	;
	87	0	0	180.8	-180.8	1.00228021854	100	0	361.6	188.032	0	0	0	0	0	0	0	60.26666667	180.8	180.8	0	;
	98	0	0	44	-44	1.00294792346	100	0	88	45.76	0	0	0	0	0	0	0	14.66666667	44	44	0	;
	99	0	0	24.15	-24.15	0.994874805545	100	0	48.3	25.116	0	0	0	0	0	0	0	8.05	24.15	24.15	0	;
	100	0	0	225	-225	1.01818734303	100	0	450	234	0	0	0	0	0	0	0	75	225	225	0	;
	100	0	0	225	-225	1.01818734303	100	0	450	234	0	0	0	0	0	0	0	75	225	225	0	;
	100	0	0	225	-225	1.01818734303	100	0	450	234	0	0	0	0	0	0	0	75	225	225	0	;
	100	500.480960826	13.8728305141	275	-275	1.01818734303	100	1	550	220	0	0	0	0	0	0	0	60.5	181.5	275	0	;
	100	450.747110312	16.6807262338	250	-250	1.01818734303	100	1	500	200	0	0	0	0	0	0	0	55	165	250	0	;
	100	450.747110312	16.6807262338	250	-250	1.01818734303	100	1	500	200	0	0	0	0	0	0	0	55	165	250	0	;
	100	450.747110312	16.6807262338	250	-250	1.01818734303	100	1	500	200	0	0	0	0	0	0	0	55	165	250	0	;
	100	450.747110312	16.6807262338	250	-250	1.01818734303	100	1	500	200	0	0	0	0	0	0	0	55	165	250	0	;
	100	450.747110312	16.6807262338	250	-250	1.01818734303	100	1	500	200	0	0	0	0	0	0	0	55	165	250	0	;
	100	964.838610705	73.0551360395	509.515	-509.515	1.01818734303	100	1	1019.03	407.612	0	0	0	0	0	0	0	112.0933	336.2799	509.515	0	;
	100	964.838610705	73.0551360395	509.515	-509.515	1.01818734303	100	1	1019.03	407.612	0	0	0	0	0	0	0	112.0933	336.2799	509.515	0	;
	106	912.288024671	63.9551282425	509	-509	1.00555116814	100	1	1018	407.2	0	0	0	0	0	0	0	111.98	335.94	509	0	;
	108	0	0	359.2	-359.2	1.00313228871	100	0	718.4	373.568	0	0	0	0	0	0	0	119.7333333	359.2	359.2	0	;
	124	928.398416995	75.6659809764	475	-475	1.02128039685	100	1	950	902.5	0	0	0	0	0	0	0	28.5	85.5	475	0	;
	124	928.398416995	75.6659809764	475	-475	1.02128039685	100	1	950	902.5	0	0	0	0	0	0	0	28.5	85.5	475	0	;
	124	977.570641714	84.2812257666	500	-500	1.02128039685	100	1	1000	950	0	0	0	0	0	0	0	30	90	500	0	;
	124	977.570641714	84.2812257666	500	-500	1.02128039685	100	1	1000	950	0	0	0	0	0	0	0	30	90	500	0	;
	124	977.570641714	84.2812257666	500	-500	1.02128039685	100	1	1000	950	0	0	0	0	0	0	0	30	90	500	0	;
	124	977.570641714	84.2812257666	500	-500	1.02128039685	100	1	1000	950	0	0	0	0	0	0	0	30	90	500	0	;
	128	0	0	57.623	-57.623	0.994304633773	100	0	115.246	59.92792	0	0	0	0	0	0	0	19.20766667	57.623	57.623	0	;
	134	490.32205467	-4.19705953149	262.75	-262.75	1.00212565686	100	1	525.5	273.26	0	0	0	0	0	0	0	87.58333333	262.75	262.75	0	;
	134	817.386377919	33.6416593405	432.1	-432.1	1.00212565686	100	1	864.2	449.384	0	0	0	0	0	0	0	144.0333333	432.1	432.1	0	;
	134	0	0	247.3	-247.3	1.00212565686	100	0	494.6	257.192	0	0	0	0	0	0	0	82.43333333	247.3	247.3	0	;
	134	0	0	247.3	-247.3	1.00212565686	100	0	494.6	257.192	0	0	0	0	0	0	0	82.43333333	247.3	247.3	0	;
	137	298.728484617	17.5184706509	170	-170	0.998755079827	100	1	340	136	0	0	0	0	0	0	0	37.4	112.2	170	0	;
	137	285.83112153	17.9775664962	164.3	-164.3	0.998755079827	100	1	328.6	131.44	0	0	0	0	0	0	0	36.146	108.438	164.3	0	;
	156	0	0	185.35	-185.35	0.996835066793	100	0	370.7	192.764	0	0	0	0	0	0	0	61.78333333	185.35	185.35	0	;
	160	0	0	21.75	-21.75	0.988763564246	100	0	43.5	22.62	0	0	0	0	0	0	0	7.25	21.75	21.75	0	;
	166	684.16822749	80.9983830885	350	-350	1.01245736887	100	1	700	665	0	0	0	0	0	0	0	21	63	350	0	;
	166	684.16822749	80.9983830885	350	-350	1.01245736887	100	1	700	665	0	0	0	0	0	0	0	21	63	350	0	;
	166	684.16822749	80.9983830885	350	-350	1.01245736887	100	1	700	665	0	0	0	0	0	0	0	21	63	350	0	;
	166	980.174472475	146.807044809	500	-500	1.01245736887	100	1	1000	950	0	0	0	0	0	0	0	30	90	500	0	;
	166	980.174472475	146.807044809	500	-500	1.01245736887	100	1	1000	950	0	0	0	0	0	0	0	30	90	500	0	;
	167	0	0	150	-150	1.01095592165	100	0	300	156	0	0	0	0	0	0	0	50	150	150	0	;
	167	0	0	225	-225	1.01095592165	100	0	450	234	0	0	0	0	0	0	0	75	225	225	0	;
	167	0	0	225	-225	1.01095592165	100	0	450	234	0	0	0	0	0	0	0	75	225	225	0	;
	167	0	0	435.95	-435.95	1.01095592165	100	0	871.9	453.388	0	0	0	0	0	0	0	145.3166667	435.95	435.95	0	;
	167	0	0	221.4	-221.4	1.01095592165	100	0	442.8	230.256	0	0	0	0	0	0	0	73.8	221.4	221.4	0	;
	172	0	0	22.918	-22.918	1.00524214506	100	0	45.836	23.83472	0	0	0	0	0	0	0	7.639333333	22.918	22.918	0	;
	175	635.095159847	52.1713213777	325	-325	1.01945464411	100	1	650	617.5	0	0	0	0	0	0	0	19.5	58.5	325	0	;
	175	930.521652052	100.583461764	475	-475	1.01945464411	100	1	950	902.5	0	0	0	0	0	0	0	28.5	85.5	475	0	;
	175	930.521652052	100.583461764	475	-475	1.01945464411	100	1	950	902.5	0	0	0	0	0	0	0	28.5	85.5	475	0	;
	175	980.111498439	110.880620869	500	-500	1.01945464411	100	1	1000	950	0	0	0	0	0	0	0	30	90	500	0	;
	175	980.111498439	110.880620869	500	-500	1.01945464411	100	1	1000	950	0	0	0	0	0	0	0	30	90	500	0	;
	175	1374.96266212	202.454613658	700	-700	1.01945464411	100	1	1400	1330	0	0	0	0	0	0	0	42	126	700	0	;
	175	1374.96266212	202.454613658	700	-700	1.01945464411	100	1	1400	1330	0	0	0	0	0	0	0	42	126	700	0	;
	180	0	0	13.15	-13.15	0.996577225604	100	0	26.3	13.676	0	0	0	0	0	0	0	4.383333333	13.15	13.15	0	;
	186	0	0	225	-225	1.01000491887	100	0	450	234	0	0	0	0	0	0	0	75	225	225	0	;
	186	0	0	225	-225	1.01000491887	100	0	450	234	0	0	0	0	0	0	0	75	225	225	0	;
	186	0	0	225	-225	1.01000491887	100	0	450	234	0	0	0	0	0	0	0	75	225	225	0	;
	186	0	0	225	-225	1.01000491887	100	0	450	234	0	0	0	0	0	0	0	75	225	225	0	;
	190	464.075496239	-4.71775440181	280	-280	1	100	1	560	224	0	0	0	0	0	0	0	61.6	184.8	280	0	;
	190	464.075496239	-4.71775440181	280	-280	1	100	1	560	224	0	0	0	0	0	0	0	61.6	184.8	280	0	;
	190	415.518661584	13.5126468154	250	-250	1	100	1	500	200	0	0	0	0	0	0	0	55	165	250	0	;
	190	415.518661584	13.5126468154	250	-250	1	100	1	500	200	0	0	0	0	0	0	0	55	165	250	0	;
	190	948.871977686	-57.8258904326	520	-520	1	100	1	1040	416	0	0	0	0	0	0	0	114.4	343.2	520	0	;
	190	948.871977686	-57.8258904326	520	-520	1	100	1	1040	416	0	0	0	0	0	0	0	114.4	343.2	520	0	;
	193	427.934428008	5.15550718988	250	-250	1.00722902986	100	1	500	200	0	0	0	0	0	0	0	55	165	250	0	;
	193	444.091329164	5.15550718988	250	-250	1.00722902986	100	1	500	200	0	0	0	0	0	0	0	55	165	250	0	;
	193	444.091329164	5.15550718988	250	-250	1.00722902986	100	1	500	200	0	0	0	0	0	0	0	55	165	250	0	;
	193	444.091329164	5.15550718988	250	-250	1.00722902986	100	1	500	200	0	0	0	0	0	0	0	55	165	250	0	;
	193	444.091329164	5.15550718988	250	-250	1.00722902986	100	1	500	200	0	0	0	0	0	0	0	55	165	250	0	;
	193	444.091329164	5.15550718988	250	-250	1.00722902986	100	1	500	200	0	0	0	0	0	0	0	55	165	250	0	;
	193	444.091329164	5.15550718988	250	-250	1.00722902986	100	1	500	200	0	0	0	0	0	0	0	55	165	250	0	;
	193	444.091329164	5.15550718988	250	-250	1.00722902986	100	1	500	200	0	0	0	0	0	0	0	55	165	250	0	;
];

% branch data
%	fbus	tbus	r	x	b	rateA	rateB	rateC	ratio	angle	status	angmin	angmax	Pf	Qf	Pt	Qt
mpc.branch = [
	1	2	0.001953667	0.017794207	0.057753945	904	904	904	0	0	1	-30	30	-2.91499688766	-24.4215466346	2.92422286287	18.7080193694	;
	1	3	0.002346024	0.021367842	0.069352749	904	904	904	0	0	1	-30	30	-24.6613784214	-21.2139608532	24.6830363746	14.4458965642	;
	1	66	0.002789894	0.025410654	0.082474341	904	904	904	0	0	1	-30	30	-34.7320219481	39.4046681998	34.8185419894	-46.7811888073	;
	2	3	0.000230027	0.002463512	0.207508013	2172	2172	2172	0	0	1	-30	30	-193.921307117	-12.0031520366	194.007151451	-7.99905581734	;
	2	4	0.001097043	0.009991982	0.032430577	904	904	904	0	0	1	-30	30	-24.5047962759	-3.69569566329	24.5113795677	0.485967836751	;
	2	6	0.004587512	0.041783555	0.135615211	904	904	904	0	0	1	-30	30	140.194159216	-10.5399448003	-139.298805472	5.0713500715	;
	3	4	0.000157872	0.001690763	0.142417379	2172	2172	2172	0	0	1	-30	30	137.836935738	-18.841089256	-137.806988336	4.79607012221	;
	3	7	0.001539844	0.014025061	0.04552058	904	904	904	0	0	1	-30	30	310.896458787	-13.9513330433	-309.418897961	22.827339988	;
	3	28	0.000668777	0.007162388	0.603306441	2172	2172	2172	0	0	1	-30	30	-165.048325856	-36.7896199217	165.229199515	-22.2286244273	;
	4	7	0.001330617	0.012119404	0.039335464	904	904	904	0	0	1	-30	30	340.579225368	-14.3294323257	-339.047072599	24.3252925151	;
	4	8	0.000413018	0.004423289	0.372585094	2172	2172	2172	0	0	1	-30	30	1365.51280948	-57.3062130445	-1357.87184248	101.634856859	;
	5	16	0.00309813	0.028218105	0.091586372	904	904	904	0	0	1	-30	30	88.3174773966	-49.8517911493	-88.0076478396	43.552055497	;
	5	20	0.003233724	0.029453105	0.095594761	904	904	904	0	0	1	-30	30	98.7126437078	-41.4646668051	-98.3485835123	35.2819507731	;
	5	66	0.002753227	0.025076687	0.081390398	904	904	904	0	0	1	-30	30	-156.878915966	27.5684125484	157.594337765	-29.0507789811	;
	5	70	0.001710666	0.015580931	0.050570403	904	904	904	0	0	1	-30	30	-107.306500983	54.7020314506	107.563157059	-57.3132742226	;
	6	8	0.001796592	0.016363559	0.053110546	904	904	904	0	0	1	-30	30	-5.37132875405	-11.3843601738	5.37321211133	6.07482945325	;
	6	11	0.001545809	0.014079394	0.045696926	904	904	904	0	0	1	-30	30	67.7029053144	-1.38371299246	-67.6321379765	-2.54274507494	;
	7	9	0.000740338	0.006743076	0.021885732	904	904	904	0	0	1	-30	30	291.616933965	-34.2068803965	-290.981981669	37.7914495107	;
	7	14	0.000255269	0.002733843	0.230278712	2172	2172	2172	0	0	1	-30	30	722.4145868	-84.5009139199	-721.074604165	75.7160726476	;
	7	28	0.000583767	0.00625196	0.526618746	2172	2172	2172	0	0	1	-30	30	-884.901769722	19.6214781562	889.465590089	-23.8358458638	;
	8	10	0.000160584	0.000184873	0.901984702	1416	1416	1416	0	0	1	-30	30	1139.36770307	-331.713786102	-1137.16119677	243.76940728	;
	8	11	0.000158062	0.001692798	0.142588761	2172	2172	2172	0	0	1	-30	30	615.324296747	95.4509587441	-614.711929713	-103.177441243	;
	8	14	0.000269282	0.002883925	0.242920462	2172	2172	2172	0	0	1	-30	30	27.71138107	-24.4332945718	-27.7089212197	0.0522754918393	;
	9	12	0.000119405	0.000137466	0.167672111	708	708	708	0	0	1	-30	30	160.437867368	-43.1204411158	-160.405850721	26.3108131397	;
	9	13	0.000176983	0.000203752	0.248523638	708	708	708	0	0	1	-30	30	40.015023816	-39.7040218101	-40.0108989988	14.7357104303	;
	9	15	0.000297907	0.000342968	0.41832935	708	708	708	0	0	1	-30	30	-209.596270267	15.0204770422	209.730358538	-56.9238164634	;
	10	14	0.00105221	0.00958364	0.031105236	904	904	904	0	0	1	-30	30	-19.6776061363	-15.7989824612	19.6838026383	12.7341625557	;
	10	24	0.000243464	0.000280289	1.367512381	1416	1416	1416	0	0	1	-30	30	497.475227136	-293.906783571	-496.750363339	157.812384238	;
	11	21	0.00015784	0.00169041	0.142387631	2172	2172	2172	0	0	1	-30	30	99.7023238281	41.2013921273	-99.6829329049	-55.2066990512	;
	11	25	0.00110679	0.010080759	0.032718716	904	904	904	0	0	1	-30	30	36.503157439	9.90493553522	-36.4869222599	-13.0210881192	;
	12	14	0.000665432	0.00606083	0.019671394	904	904	904	0	0	1	-30	30	-4.25397582526	-4.16191758859	4.25416241917	2.18702571067	;
	12	18	0.000258897	0.000298056	0.363549377	708	708	708	0	0	1	-30	30	-135.012966321	-52.1161754861	135.062897908	15.6356808555	;
	13	16	0.000661549	0.006025463	0.019556605	904	904	904	0	0	1	-30	30	-24.6181675402	-11.4185546239	24.6228745902	9.49474796084	;
	13	17	0.000189196	0.000217813	0.265674267	708	708	708	0	0	1	-30	30	-241.787520531	-30.6282253942	241.898156135	4.04639124122	;
	13	22	0.000821755	0.00748463	0.024292563	904	904	904	0	0	1	-30	30	-16.5781517672	-4.98840442845	16.5805154603	2.56789842983	;
	14	18	9.94e-05	0.000114489	0.558582953	1416	1416	1416	0	0	1	-30	30	-138.244834834	-108.808883834	138.270184135	52.6862199455	;
	14	19	2.7e-05	6.2e-05	1.344867636	1906	1906	1906	0	0	1	-30	30	362.792048497	-24.2416589854	-362.756184709	-110.821853039	;
	14	23	0.000322118	0.000370841	0.45232683	708	708	708	0	0	1	-30	30	153.91037518	7.72220598963	-153.831479949	-53.0638646578	;
	15	16	0.000110729	0.000127478	0.155489196	708	708	708	0	0	1	-30	30	-312.198674243	46.6769846814	312.309238677	-62.1942537427	;
	16	17	1.61e-05	3.7e-05	7.216516162	5718	5718	5718	0	0	1	-30	30	2386.9573549	-596.074342715	-2386.03722544	-127.886050378	;
	16	20	0.000640865	0.005837068	0.018945138	904	904	904	0	0	1	-30	30	72.7656984962	31.2147398757	-72.7253931448	-32.7499042736	;
	16	22	3.29e-05	7.57e-05	1.640782241	1906	1906	1906	0	0	1	-30	30	407.400702914	234.448530169	-407.313592905	-399.319523611	;
	16	28	0.000193401	0.002071259	0.697869898	4344	4344	4344	0	0	1	-30	30	-3557.48574202	295.414790475	3582.01563845	-103.137352419	;
	17	18	8.5e-06	1.95e-05	1.693948976	3812	3812	3812	0	0	1	-30	30	1668.13338648	76.2390896263	-1667.89602876	-246.048004963	;
	18	19	3.3e-05	3.8e-05	0.742	2832	2832	2832	0	0	1	-30	30	899.200503357	115.446681861	-898.927475955	-189.712988587	;
	18	30	0.000754369	0.006870878	0.022300533	904	904	904	0	0	1	-30	30	-1.60725137748	12.5824624639	1.6086796506	-14.8096680151	;
	19	23	4.24e-05	4.88e-05	0.952412124	2832	2832	2832	0	0	1	-30	30	793.829323402	253.748430801	-793.525019598	-349.04822626	;
	20	22	0.000644357	0.005868869	0.019048354	904	904	904	0	0	1	-30	30	-68.1894869671	-26.6934354122	68.2236571039	25.092738983	;
	21	25	0.000588113	0.0053566	0.017385701	904	904	904	0	0	1	-30	30	37.0167586173	6.07384781492	-37.0083934578	-7.73036683547	;
	21	34	9.49e-05	0.001016882	0.085654572	2172	2172	2172	0	0	1	-30	30	-666.14981153	-23.7969246397	666.572473793	19.7769462889	;
	22	29	0.000157753	0.000181614	0.886083495	1416	1416	1416	0	0	1	-30	30	508.162177009	53.4331768008	-507.742052159	-141.97435565	;
	22	36	0.000114952	0.001231098	0.103698609	2172	2172	2172	0	0	1	-30	30	22.5539352192	62.5424707471	-22.5481061511	-72.8998828787	;
	22	38	0.000222736	0.002385427	0.200930653	2172	2172	2172	0	0	1	-30	30	-382.036567089	155.113255337	382.420274777	-171.149957867	;
	22	46	0.000425686	0.004558955	0.384012537	2172	2172	2172	0	0	1	-30	30	-415.095449159	41.6774539289	415.840525732	-72.2854092584	;
	23	24	5.52e-05	0.000503	0.0147	2712	2712	2712	0	0	1	-30	30	663.455652755	234.570687204	-663.18315067	-233.560891375	;
	23	32	2.02e-05	4.64e-05	1.00675716	1906	1906	1906	0	0	1	-30	30	-228.510057656	113.97689327	228.526011295	-214.996385587	;
	23	33	0.000169968	0.000195677	0.238673524	708	708	708	0	0	1	-30	30	167.776874722	19.1010986021	-167.727576207	-42.9943475092	;
	24	26	0.000118	0.000136	0.664	1416	1416	1416	0	0	1	-30	30	596.105263567	19.3656840418	-595.683001925	-85.2755227915	;
	25	26	0.00041452	0.003775492	0.012253963	904	904	904	0	0	1	-30	30	-227.582878831	-16.0940892887	227.799426116	16.8439603258	;
	25	34	0.000619848	0.00564564	0.018323828	904	904	904	0	0	1	-30	30	-154.874390965	-8.74971430237	155.024041238	8.28497343702	;
	26	32	0.000607908	0.005536893	0.01797087	904	904	904	0	0	1	-30	30	-77.5101671243	-33.5067706195	77.5531889111	32.0989055431	;
	26	34	4.5e-05	0.000103577	2.245327702	1906	1906	1906	0	0	1	-30	30	-92.7615901839	48.1227994802	92.7770377924	-272.406455264	;
	27	34	9.33e-05	0.000999417	0.336734	4344	4344	4344	0	0	1	-30	30	-21.7494346883	-3.06542466535	21.7500531307	-30.5690839988	;
	28	38	0.001685665	0.015353221	0.049831335	904	904	904	0	0	1	-30	30	422.813742737	5.12336606077	-419.83496723	16.9956564665	;
	28	41	0.002015591	0.018358223	0.059584548	904	904	904	0	0	1	-30	30	274.503466958	72.2369295205	-272.889873272	-63.4628550208	;
	28	50	9.99e-05	0.00321	1.63	7290	7290	7290	0	0	1	-30	30	54.4662948131	-195.665877069	-54.4507188848	30.6282944994	;
	28	80	0.000122152	0.003924627	7.991861101	14580	14580	14580	0	0	1	-30	30	-5510.49993174	255.307049107	5547.67818007	126.991746329	;
	29	30	8.04e-06	9.26e-06	0.04515506	1416	1416	1416	0	0	1	-30	30	526.385517904	49.1676746424	-526.36311123	-53.6739664029	;
	29	36	3.7e-05	8.52e-05	1.846241882	1906	1906	1906	0	0	1	-30	30	-611.983529891	33.4726596411	612.127454168	-218.474532499	;
	30	31	0.00033011	0.003006676	0.009758648	904	904	904	0	0	1	-30	30	63.7403022765	22.3822192919	-63.7252183104	-23.2233633063	;
	31	33	0.000235829	0.000271499	0.331156608	708	708	708	0	0	1	-30	30	-285.19893441	-4.69321878659	285.390735656	-28.2836333075	;
	31	36	0.00107165	0.0097607	0.031679912	904	904	904	0	0	1	-30	30	-26.0125769366	-9.57713638147	26.0204979447	6.47211071541	;
	32	33	6.05e-05	6.97e-05	0.1912274	1062	1062	1062	0	0	1	-30	30	563.636965169	-45.666707033	-563.444698366	26.6998264955	;
	32	37	0.000239942	0.002569698	0.216452349	2172	2172	2172	0	0	1	-30	30	-362.613000634	114.569109934	362.964927516	-132.476586648	;
	32	44	0.000338016	0.003620039	0.304925228	2172	2172	2172	0	0	1	-30	30	-661.690857021	98.5363096589	663.208923276	-112.836740154	;
	34	37	6.47e-05	0.000692975	0.058371101	2172	2172	2172	0	0	1	-30	30	-1933.06713315	175.21923578	1935.50796488	-154.907955658	;
	35	37	0.000950447	0.008656772	0.028096937	904	904	904	0	0	1	-30	30	-106.895117684	-49.649276474	107.027359021	48.0612087013	;
	35	40	0.001104834	0.01006295	0.032660912	904	904	904	0	0	1	-30	30	-500.451558489	-11.0853930922	503.251412993	33.3323535264	;
	36	38	0.000952048	0.00867136	0.028144286	904	904	904	0	0	1	-30	30	-107.423899962	36.09987322	107.546676327	-37.8010473589	;
	36	43	0.001604892	0.014617531	0.047443535	904	904	904	0	0	1	-30	30	7.71212144409	33.6396794786	-7.69042884399	-38.1797427632	;
	36	44	0.000327256	0.003504805	0.295218756	2172	2172	2172	0	0	1	-30	30	-648.380864612	101.676118329	649.795452391	-116.115135672	;
	36	46	0.000315296	0.00337672	0.284429868	2172	2172	2172	0	0	1	-30	30	-568.150987223	43.4222578916	569.175190051	-61.0098370108	;
	37	40	0.000119	0.00127	0.429	4344	4344	4344	0	0	1	-30	30	-3264.4758054	153.425774462	3277.20473282	-60.5510579313	;
	38	42	0.001675214	0.015258027	0.049522368	904	904	904	0	0	1	-30	30	227.469119724	76.2129517934	-226.498210509	-72.245105045	;
	38	45	0.001624604	0.014797065	0.048026242	904	904	904	0	0	1	-30	30	-116.409646967	-9.26370882565	116.630654574	6.46129293705	;
	38	46	0.001525585	0.013895192	0.045099066	904	904	904	0	0	1	-30	30	-70.3307584142	-10.0909725415	70.4071879039	6.26903711093	;
	38	84	0.000977268	0.010466224	0.881597169	2172	2172	2172	0	0	1	-30	30	-458.755598053	100.307601875	461.016921801	-163.389663842	;
	39	44	0.000549539	0.00500526	0.064981493	1808	1808	1808	0	0	1	-30	30	-671.187221056	-67.11872171	673.72172614	83.7499461682	;
	40	44	0.000186834	0.002000932	0.16854368	2172	2172	2172	0	0	1	-30	30	1347.19142864	-25.1799481361	-1343.8142225	44.4540744169	;
	40	47	0.000177428	0.001900194	0.160058219	2172	2172	2172	0	0	1	-30	30	-610.295526394	149.304893037	610.997347009	-157.832441777	;
	41	42	0.001299581	0.011836722	0.038417974	904	904	904	0	0	1	-30	30	403.353914471	-7.91653946112	-401.187133331	23.91499482	;
	41	52	0.003101751	0.028251087	0.091693421	904	904	904	0	0	1	-30	30	-55.0532780919	-15.251273543	55.1532884608	7.1679587677	;
	41	77	0.002217352	0.020195883	0.065548969	904	904	904	0	0	1	-30	30	-259.243609281	68.2474004282	260.886412797	-59.6353928896	;
	42	46	0.00172419	0.015704108	0.050970195	904	904	904	0	0	1	-30	30	-281.540932109	-75.0771735291	283.044630374	83.7439194971	;
	42	84	0.004178797	0.038060939	0.123532864	904	904	904	0	0	1	-30	30	-212.70769633	11.2139020126	214.670952702	-5.37822788135	;
	43	44	0.000449352	0.004092749	0.013283673	904	904	904	0	0	1	-30	30	-577.071283888	-20.2965912383	578.579650068	32.7107227218	;
	44	48	0.001280818	0.011665829	0.037863315	904	904	904	0	0	1	-30	30	-216.168234586	-18.4536088625	216.769911442	20.1262217789	;
	44	57	0.000681396	0.007297531	0.614689901	2172	2172	2172	0	0	1	-30	30	-1185.73852518	68.4491466104	1195.38031558	-26.9781929919	;
	45	46	0.000111099	0.001189836	0.100222927	2172	2172	2172	0	0	1	-30	30	629.164688533	9.7321829492	-628.727162198	-15.1174735632	;
	45	50	0.00040114	0.004296079	0.361869864	2172	2172	2172	0	0	1	-30	30	-1076.12814668	-49.2267484872	1080.75100861	62.0991115455	;
	46	48	0.001260894	0.011484355	0.037274311	904	904	904	0	0	1	-30	30	-250.851345155	0.570014387829	251.641678717	2.87370915387	;
	46	50	0.000334595	0.003583402	0.301839233	2172	2172	2172	0	0	1	-30	30	-1498.06878091	-46.0882041111	1505.5509232	95.6857610114	;
	47	49	0.001906713	0.017366547	0.056365905	904	904	904	0	0	1	-30	30	-224.687545433	-32.7376687534	225.666679122	35.9582463122	;
	47	60	0.000752607	0.008060181	0.67892992	2172	2172	2172	0	0	1	-30	30	-1334.38672616	9.61154575701	1347.79462652	65.2135523174	;
	48	49	0.001480551	0.013485018	0.043767781	904	904	904	0	0	1	-30	30	-389.634462421	12.1063730548	391.861541669	3.73198302713	;
	48	51	0.001270961	0.011576049	0.037571917	904	904	904	0	0	1	-30	30	-262.376598907	-53.4662492496	263.275794309	57.8223588444	;
	49	51	0.000899122	0.008189302	0.0598043	1356	1356	1356	0	0	1	-30	30	276.77595305	-85.7592673035	-276.041157639	86.3181713988	;
	49	53	0.002230934	0.020319589	0.065950477	904	904	904	0	0	1	-30	30	-531.896765456	21.8540136258	538.092076666	27.756851803	;
	50	51	0.000183433	0.001964511	0.165475847	2172	2172	2172	0	0	1	-30	30	-272.599318042	-262.394311053	272.84914978	248.114058182	;
	50	54	0.000298513	0.003196975	0.269289514	2172	2172	2172	0	0	1	-30	30	-274.597830346	81.0090049421	274.844974892	-105.74869267	;
	50	62	4.12e-05	0.001322961	2.693994224	14580	14580	14580	0	0	1	-30	30	-2431.34591185	-51.6970154992	2433.73860486	-146.13438637	;
	51	55	0.001436718	0.01308578	0.042471992	904	904	904	0	0	1	-30	30	-370.190149205	96.0221075713	372.235853749	-81.7382790159	;
	51	57	0.00189377	0.017248658	0.055983277	904	904	904	0	0	1	-30	30	-185.221582906	79.8833534232	185.978168875	-78.7027069753	;
	52	54	0.001933006	0.017606027	0.057143176	904	904	904	0	0	1	-30	30	-237.115188874	-53.9430313982	238.268923729	58.7353141441	;
	52	56	0.001462649	0.013321963	0.04323856	904	904	904	0	0	1	-30	30	-102.952772288	-24.206108169	103.117268498	21.4223070798	;
	52	84	0.001585688	0.014442614	0.046875812	904	904	904	0	0	1	-30	30	-126.91558654	29.7981580409	127.191269349	-31.8967070206	;
	53	55	0.000288514	0.003089893	1.041078801	4344	4344	4344	0	0	1	-30	30	2679.39281443	266.011974622	-2659.31052021	-158.362991523	;
	53	58	0.000270064	0.002892303	0.243626177	2172	2172	2172	0	0	1	-30	30	-1224.39039937	147.499461574	1228.32669117	-130.812620966	;
	53	63	2.79e-05	0.000896312	1.825192122	14580	14580	14580	0	0	1	-30	30	2059.69860652	389.915536396	-2058.50437299	-541.625148662	;
	54	55	0.002132132	0.019419691	0.063029714	904	904	904	0	0	1	-30	30	-230.591367437	20.2008360781	231.72001354	-16.3261363967	;
	54	61	0.001817125	0.016550571	0.053717525	904	904	904	0	0	1	-30	30	-26.0346999859	9.26415456238	26.0494107003	-14.5735020965	;
	54	62	0.000345552	0.003700749	0.311723639	2172	2172	2172	0	0	1	-30	30	-623.721916442	-19.1750125119	625.046613455	1.64825584012	;
	55	57	0.000154208	0.001651521	0.139111914	2172	2172	2172	0	0	1	-30	30	986.560162991	143.159250004	-985.050996241	-141.098627207	;
	55	64	0.003142511	0.028622331	0.092898352	904	904	904	0	0	1	-30	30	-0.159755387131	6.37268994829	0.163560661394	-15.7618646919	;
	56	61	0.001408725	0.01283082	0.041644479	904	904	904	0	0	1	-30	30	-251.633048915	-36.273881903	252.546197684	40.4125316897	;
	57	60	0.001430752	0.01303144	0.042295623	904	904	904	0	0	1	-30	30	-457.020366321	2.52156265908	459.979887585	20.1302158517	;
	57	97	0.000552148	0.005913329	0.498094995	2172	2172	2172	0	0	1	-30	30	-1622.41697224	75.9449640941	1636.86485941	28.1086226223	;
	58	59	6.17e-05	0.00066	0.501	6516	6516	6516	0	0	1	-30	30	-5456.25837736	14.686062382	5473.84153237	120.872237597	;
	58	63	0.00017	0.00182	0.613	4344	4344	4344	0	0	1	-30	30	2967.98772116	-9.86798414893	-2953.65281844	99.5416916589	;
	60	63	0.000254942	0.002730347	0.229984176	2172	2172	2172	0	0	1	-30	30	-731.470922241	-144.324048815	732.845040443	135.329959987	;
	60	100	0.000568608	0.006089613	0.512943851	2172	2172	2172	0	0	1	-30	30	-1242.91502863	42.3190966925	1251.50867293	-3.16785358193	;
	61	62	0.000190755	0.001737417	0.022556263	1808	1808	1808	0	0	1	-30	30	-1076.23896721	-105.603364984	1078.44321342	123.388452905	;
	62	63	6.31e-05	0.00202596	4.125535352	14580	14580	14580	0	0	1	-30	30	-4247.40288236	-311.582152105	4258.57046112	245.920372729	;
	62	64	0.00024797	0.002655684	0.223695124	2172	2172	2172	0	0	1	-30	30	-828.653603925	238.797051928	830.475288814	-242.005516143	;
	63	97	0.001705746	0.015536123	0.050424972	904	904	904	0	0	1	-30	30	-109.327487327	47.8260897026	109.566022197	-50.8515239246	;
	64	96	0.001229987	0.011202852	0.036360649	904	904	904	0	0	1	-30	30	-296.088128213	27.1927345219	297.164682757	-21.0677964297	;
	64	98	0.00145865	0.013285543	0.043120356	904	904	904	0	0	1	-30	30	-20.0581863735	20.2273339368	20.0712320173	-24.4575497316	;
	64	99	0.00122871	0.011191219	0.036322892	904	904	904	0	0	1	-30	30	245.842931107	70.8266829729	-245.044427925	-67.187998295	;
	64	102	0.00020466	0.002191839	0.73849704	4344	4344	4344	0	0	1	-30	30	-1234.26817424	92.1273662762	1237.3852167	-133.430193701	;
	65	68	0.001222283	0.011132689	0.036132921	904	904	904	0	0	1	-30	30	-343.163366131	-7.72114853493	344.624948681	17.4536940128	;
	65	69	0.003164497	0.028822584	0.093548306	904	904	904	0	0	1	-30	30	263.041279697	-3.54974282067	-260.818588627	14.6319096812	;
	66	67	0.001903714	0.01733923	0.056277244	904	904	904	0	0	1	-30	30	-344.478417612	64.8889156029	346.872559348	-48.5794283039	;
	66	70	0.001986687	0.018094956	0.058730073	904	904	904	0	0	1	-30	30	124.330597639	7.68719950633	-124.014950718	-10.5433802415	;
	67	69	0.001285688	0.011710181	0.038007266	904	904	904	0	0	1	-30	30	-370.328620281	45.9998333945	372.170197024	-32.9269314066	;
	68	69	0.00309092	0.02815243	0.091373212	904	904	904	0	0	1	-30	30	406.868008557	14.5744353659	-401.720960812	23.3048920061	;
	68	71	0.000542799	0.0058132	0.489660838	2172	2172	2172	0	0	1	-30	30	-790.751981689	-36.1009238997	794.159353437	23.5113836133	;
	69	72	0.003845431	0.035024597	0.113677932	904	904	904	0	0	1	-30	30	249.100534294	-9.24776308569	-246.649528591	20.5515520182	;
	70	72	0.001924592	0.017529395	0.056894456	904	904	904	0	0	1	-30	30	-217.259736887	44.4824599419	218.238825988	-41.0745459045	;
	71	73	0.000429713	0.004602092	0.387646086	2172	2172	2172	0	0	1	-30	30	-405.956259541	-66.2196919335	406.667814876	34.5923535581	;
	71	78	0.005029715	0.045811184	0.148687523	904	904	904	0	0	1	-30	30	331.092103063	16.8331363982	-325.594819119	18.4838572737	;
	72	74	0.001850173	0.016851572	0.054694473	904	904	904	0	0	1	-30	30	-63.6228435256	11.3196527037	63.704179455	-15.8513398147	;
	73	75	0.000154736	0.001657168	0.139587554	2172	2172	2172	0	0	1	-30	30	-1360.16772652	-59.6546845939	1362.98806706	75.6248993238	;
	73	76	0.003400257	0.030969904	0.100517777	904	904	904	0	0	1	-30	30	282.242224402	12.4709801543	-279.567280953	1.78751063035	;
	73	79	0.005323371	0.048485836	0.157368535	904	904	904	0	0	1	-30	30	263.576899316	7.78511911415	-259.9257195	9.68597885062	;
	73	80	0.003287737	0.029945065	0.097191498	904	904	904	0	0	1	-30	30	222.140730124	-28.6600378894	-220.526540847	33.462678332	;
	73	81	0.001180594	0.012643784	1.065018618	2172	2172	2172	0	0	1	-30	30	1309.75203134	48.4945028605	-1289.70665601	59.4928225708	;
	74	77	0.001050785	0.009570661	0.03106311	904	904	904	0	0	1	-30	30	159.478361167	-11.6375595907	-159.199686092	11.1865654066	;
	74	78	0.003080612	0.028058549	0.091068507	904	904	904	0	0	1	-30	30	-302.459465636	18.9893147103	305.403786267	-1.00073030146	;
	75	82	0.000690812	0.007398375	0.623184303	2172	2172	2172	0	0	1	-30	30	367.252327735	-108.503621315	-366.301889367	54.71237626	;
	76	79	0.00216439	0.019713499	0.063983315	904	904	904	0	0	1	-30	30	202.79660728	-9.6399179925	-201.900269199	11.4580744546	;
	77	81	0.002745828	0.0250093	0.081171682	904	904	904	0	0	1	-30	30	-425.514728837	16.066054671	430.695701373	23.2136222737	;
	78	81	0.002422622	0.022065501	0.071617111	904	904	904	0	0	1	-30	30	-27.4734332694	-25.3205928571	27.5039923185	18.5695197647	;
	79	80	0.003522928	0.032087205	0.104144155	904	904	904	0	0	1	-30	30	-192.64077754	-26.3074212755	193.977977596	28.0198922538	;
	79	81	0.001905365	0.017354266	0.056326045	904	904	904	0	0	1	-30	30	214.5988051	-15.1955088831	-213.709045703	17.7330386581	;
	79	83	0.001772751	0.016146406	0.052405742	904	904	904	0	0	1	-30	30	297.003469887	6.07242623726	-295.42174684	3.17735534544	;
	80	82	3.61e-05	0.00115912	2.360357594	14580	14580	14580	0	0	1	-30	30	-5408.65340841	-192.265334448	5419.00269471	282.557989044	;
	81	84	0.00122041	0.011115623	0.144310127	1808	1808	1808	0	0	1	-30	30	1154.11194428	-30.2898070164	-1137.63630353	166.151997326	;
	81	86	0.000662535	0.007095536	0.59767536	2172	2172	2172	0	0	1	-30	30	-315.812989585	-109.410855763	316.525331983	57.5666505913	;
	82	85	0.004627741	0.042149964	0.136804449	904	904	904	0	0	1	-30	30	314.025067942	15.7481046133	-309.571216557	10.9388475118	;
	82	86	0.000927929	0.009937818	0.837088105	2172	2172	2172	0	0	1	-30	30	1415.5552499	58.0914661531	-1397.41102461	51.1319792934	;
	82	94	0.005001876	0.045557628	0.147864567	904	904	904	0	0	1	-30	30	306.70145568	5.70747012911	-302.124895326	20.9205369754	;
	83	89	0.003668123	0.033409661	0.108436396	904	904	904	0	0	1	-30	30	58.8242095487	-26.8371436901	-58.6771150607	17.5091988632	;
	85	86	0.000987046	0.00899012	0.029178874	904	904	904	0	0	1	-30	30	86.7370482072	-33.2222680707	-86.6527495489	31.0690423099	;
	86	87	0.000301405	0.003227955	0.271898989	2172	2172	2172	0	0	1	-30	30	445.379647959	-74.4849218981	-444.772501015	53.6930245424	;
	86	89	0.003643968	0.033189659	0.107722346	904	904	904	0	0	1	-30	30	161.158910875	2.46337429764	-160.213179246	-4.57948738697	;
	86	90	0.002477336	0.022563841	0.073234554	904	904	904	0	0	1	-30	30	97.2492159233	-10.3149658245	-97.0145611234	5.11087339241	;
	86	92	0.000752885	0.008063158	0.67918067	2172	2172	2172	0	0	1	-30	30	245.536150628	-79.2526304871	-245.068332871	15.9977382176	;
	87	90	0.002118269	0.019293421	0.062619884	904	904	904	0	0	1	-30	30	39.5927345287	-0.113225488245	-39.5594859293	-5.86579120629	;
	87	95	0.000515412	0.005519901	0.464955523	2172	2172	2172	0	0	1	-30	30	377.920561161	-58.5719176705	-377.181411376	19.7700782233	;
	88	92	0.001978682	0.018022046	0.058493431	904	904	904	0	0	1	-30	30	82.0849839267	-5.35422710575	-81.9527729155	0.661173960127	;
	88	94	0.002833759	0.025810183	0.083771075	904	904	904	0	0	1	-30	30	-23.3714178233	3.95052139079	23.3886320491	-12.2365393602	;
	89	93	0.001483845	0.013515018	0.043865152	904	904	904	0	0	1	-30	30	143.170859252	-20.5016886788	-142.858288675	19.0077851544	;
	90	92	0.002453205	0.022344057	0.072521209	904	904	904	0	0	1	-30	30	-10.2565992688	-14.4095479477	10.2620196191	7.17457751859	;
	91	147	0.00275034	0.025050396	0.081305066	904	904	904	0	0	1	-30	30	-50.7634135995	-5.0763414528	50.8340806012	-2.451554501	;
	92	95	0.000460572	0.004932573	0.415483409	2172	2172	2172	0	0	1	-30	30	313.808503238	-26.4098751212	-313.358014684	-10.5653874406	;
	93	102	0.004195747	0.038215319	0.124033929	904	904	904	0	0	1	-30	30	-38.7186851122	-29.2809530194	38.8049032168	17.6535106734	;
	93	149	0.002966654	0.027020609	0.087699707	904	904	904	0	0	1	-30	30	81.1296199349	0.22836960034	-80.9317826271	-7.08010531253	;
	94	150	0.00258422	0.023537359	0.076394262	904	904	904	0	0	1	-30	30	265.077230794	-12.3969766271	-263.271099941	21.1809673227	;
	95	146	0.001216475	0.011079788	0.035961223	904	904	904	0	0	1	-30	30	240.150242245	20.3836222821	-239.446204136	-17.5672096568	;
	95	150	0.000858914	0.009198692	0.774829649	2172	2172	2172	0	0	1	-30	30	284.42136934	-38.1709028797	-283.729997383	-32.1268900908	;
	95	152	0.003724941	0.033927169	0.110116054	904	904	904	0	0	1	-30	30	108.911567579	2.87696689399	-108.469301149	-9.8469273227	;
	96	97	0.002346462	0.021371826	0.069365678	904	904	904	0	0	1	-30	30	-217.358535014	-2.43925415037	218.452754886	5.33649336066	;
	96	103	0.002051033	0.01868103	0.060632271	904	904	904	0	0	1	-30	30	-227.42021331	8.74564449392	228.470067174	-5.34678671277	;
	97	100	0.000128497	0.001376164	0.463671503	4344	4344	4344	0	0	1	-30	30	-2818.4958654	-130.38684243	2828.46840961	189.391029781	;
	97	102	0.00092063	0.009859649	0.830503733	2172	2172	2172	0	0	1	-30	30	537.150755892	-9.33245244056	-534.549435777	-47.3708467651	;
	97	104	0.000506958	0.005429358	0.457328847	2172	2172	2172	0	0	1	-30	30	528.28605229	34.6433914607	-526.889086935	-66.3126353205	;
...